IJAU11/Master_DO08_2022124950_IJAU11_--MBS-1--T--.dss
clear
Redirect "CircuitoMT_2022124950_IJAU11_--MBS-1--T--.dss"
Redirect "CodCondutor_2022124950_IJAU11_--MBS-1--T--.dss"
Redirect "TransformadorMTMTMTBT_2022124950_IJAU11_--MBS-1--T--.dss"
Redirect "SegmentosMT_2022124950_IJAU11_--MBS-1--T--.dss"
Redirect "ChavesMT_2022124950_IJAU11_--MBS-1--T--.dss"
Redirect "SegmentosBT_2022124950_IJAU11_--MBS-1--T--.dss"
Redirect "RamaisBT_2022124950_IJAU11_--MBS-1--T--.dss"
Redirect "Medidores_2022124950_IJAU11_--MBS-1--T--.dss"
Redirect "CurvaCarga_2022124950_IJAU11_--MBS-1--T--.dss"
Redirect "CargasBT_DO08_2022124950_IJAU11_--MBS-1--T--.dss"
Redirect "CargasMT_DO08_2022124950_IJAU11_--MBS-1--T--.dss"
!Redirect "GD_BT_2022124950_IJAU11_--MBS-1--T--.dss"
!Redirect "GD_MT_2022124950_IJAU11_--MBS-1--T--.dss"
Set mode = daily
Set Voltagebases = [0.22 0.24 13.8]
Calc Voltagebases
Set tolerance = 0.0001
Set maxcontroliter = 10
!Set algorithm = newton
!Solve mode = direct
Solve
buscoords buscoords.csv
