IJAU11/CargasBT_DO08_2022124950_IJAU11_--MBS-1--T--.dss
New "Load.BT_1013320_1_M1" bus1="1001013320.1.2.3.4" phases=3 conn=Delta model=2 kv=0.220000000 kw = 0.059572 pf=0.92 status=variable vmaxpu=1.5 vminpu=0.92 daily="COM1_13_DO"  
New "Load.BT_1013320_1_M2" bus1="1001013320.1.2.3.4" phases=3 conn=Delta model=3 kv=0.220000000 kw = 0.059572 pf=0.92 status=variable vmaxpu=1.5 vminpu=0.92 daily="COM1_13_DO" 
New "Load.BT_1036595_M1" bus1="1001036595.1.2.4" phases=1 conn=Delta model=2 kv=0.220000000 kw = 0.866341 pf=0.92 status=variable vmaxpu=1.5 vminpu=0.92 daily="RES1_19_DO"  
New "Load.BT_1036595_M2" bus1="1001036595.1.2.4" phases=1 conn=Delta model=3 kv=0.220000000 kw = 0.866341 pf=0.92 status=variable vmaxpu=1.5 vminpu=0.92 daily="RES1_19_DO" 
New "Load.BT_4857615_1_M1" bus1="1004857615.1.2.3.4" phases=3 conn=Delta model=2 kv=0.220000000 kw = 1.1805825 pf=0.92 status=variable vmaxpu=1.5 vminpu=0.92 daily="RES1_13_DO"  
New "Load.BT_4857615_1_M2" bus1="1004857615.1.2.3.4" phases=3 conn=Delta model=3 kv=0.220000000 kw = 1.1805825 pf=0.92 status=variable vmaxpu=1.5 vminpu=0.92 daily="RES1_13_DO" 
New "Load.BT_1024940_1_M1" bus1="1001024940.1.2.3.4" phases=3 conn=Delta model=2 kv=0.220000000 kw = 0.113834 pf=0.92 status=variable vmaxpu=1.5 vminpu=0.92 daily="RES1_2_DO"  
New "Load.BT_1024940_1_M2" bus1="1001024940.1.2.3.4" phases=3 conn=Delta model=3 kv=0.220000000 kw = 0.113834 pf=0.92 status=variable vmaxpu=1.5 vminpu=0.92 daily="RES1_2_DO" 
New "Load.BT_1014356_1_M1" bus1="1001014356.1.4" phases=1 conn=Wye model=2 kv=0.220000000 kw = 0.2784835 pf=0.92 status=variable vmaxpu=1.5 vminpu=0.92 daily="RES1_26_DO"  
New "Load.BT_1014356_1_M2" bus1="1001014356.1.4" phases=1 conn=Wye model=3 kv=0.220000000 kw = 0.2784835 pf=0.92 status=variable vmaxpu=1.5 vminpu=0.92 daily="RES1_26_DO" 
New "Load.BT_1041236_1_M1" bus1="1001041236.1.2.3.4" phases=3 conn=Delta model=2 kv=0.220000000 kw = 0.4151355 pf=0.92 status=variable vmaxpu=1.5 vminpu=0.92 daily="RES1_3_DO"  
New "Load.BT_1041236_1_M2" bus1="1001041236.1.2.3.4" phases=3 conn=Delta model=3 kv=0.220000000 kw = 0.4151355 pf=0.92 status=variable vmaxpu=1.5 vminpu=0.92 daily="RES1_3_DO" 
New "Load.BT_1011843_M1" bus1="1001011843.3.4" phases=1 conn=Wye model=2 kv=0.220000000 kw = 0.3304065 pf=0.92 status=variable vmaxpu=1.5 vminpu=0.92 daily="RES1_26_DO"  
New "Load.BT_1011843_M2" bus1="1001011843.3.4" phases=1 conn=Wye model=3 kv=0.220000000 kw = 0.3304065 pf=0.92 status=variable vmaxpu=1.5 vminpu=0.92 daily="RES1_26_DO" 

New "Load.BT_1041215_1_M1" bus1="1001041215.1.2.3.4" phases=3 conn=Delta model=2 kv=0.220000000 kw = 0.0080455 pf=0.92 status=variable vmaxpu=1.5 vminpu=0.92 daily="COM1_8_DO"  
New "Load.BT_1041215_1_M2" bus1="1001041215.1.2.3.4" phases=3 conn=Delta model=3 kv=0.220000000 kw = 0.0080455 pf=0.92 status=variable vmaxpu=1.5 vminpu=0.92 daily="COM1_8_DO" 

New "Load.BT_1018927_M1" bus1="1001018927.1.2.4" phases=1 conn=Delta model=2 kv=0.220000000 kw = 0.303218 pf=0.92 status=variable vmaxpu=1.5 vminpu=0.92 daily="RES1_4_DO"  
New "Load.BT_1018927_M2" bus1="1001018927.1.2.4" phases=1 conn=Delta model=3 kv=0.220000000 kw = 0.303218 pf=0.92 status=variable vmaxpu=1.5 vminpu=0.92 daily="RES1_4_DO" 
New "Load.BT_1044939_M1" bus1="1001044939.1.2.3.4" phases=3 conn=Delta model=2 kv=0.220000000 kw = 0.1987265 pf=0.92 status=variable vmaxpu=1.5 vminpu=0.92 daily="RES1_19_DO"  
New "Load.BT_1044939_M2" bus1="1001044939.1.2.3.4" phases=3 conn=Delta model=3 kv=0.220000000 kw = 0.1987265 pf=0.92 status=variable vmaxpu=1.5 vminpu=0.92 daily="RES1_19_DO" 
New "Load.BT_1019802_1_M1" bus1="1001019802.1.2.3.4" phases=3 conn=Delta model=2 kv=0.220000000 kw = 0.0901275 pf=0.92 status=variable vmaxpu=1.5 vminpu=0.92 daily="COM1_5_DO"  
New "Load.BT_1019802_1_M2" bus1="1001019802.1.2.3.4" phases=3 conn=Delta model=3 kv=0.220000000 kw = 0.0901275 pf=0.92 status=variable vmaxpu=1.5 vminpu=0.92 daily="COM1_5_DO" 

New "Load.BT_1020733_1_M1" bus1="1001020733.1.2.3.4" phases=3 conn=Delta model=2 kv=0.220000000 kw = 0.2156475 pf=0.92 status=variable vmaxpu=1.5 vminpu=0.92 daily="RES1_10_DO"  
New "Load.BT_1020733_1_M2" bus1="1001020733.1.2.3.4" phases=3 conn=Delta model=3 kv=0.220000000 kw = 0.2156475 pf=0.92 status=variable vmaxpu=1.5 vminpu=0.92 daily="RES1_10_DO" 
New "Load.BT_996534_1_M1" bus1="1000996534.1.2.4" phases=1 conn=Delta model=2 kv=0.220000000 kw = 0.02036 pf=0.92 status=variable vmaxpu=1.5 vminpu=0.92 daily="RES1_18_DO"  
New "Load.BT_996534_1_M2" bus1="1000996534.1.2.4" phases=1 conn=Delta model=3 kv=0.220000000 kw = 0.02036 pf=0.92 status=variable vmaxpu=1.5 vminpu=0.92 daily="RES1_18_DO" 
New "Load.BT_994770_M1" bus1="1000994770.3.4" phases=1 conn=Wye model=2 kv=0.220000000 kw = 0.219081 pf=0.92 status=variable vmaxpu=1.5 vminpu=0.92 daily="RES1_1_DO"  
New "Load.BT_994770_M2" bus1="1000994770.3.4" phases=1 conn=Wye model=3 kv=0.220000000 kw = 0.219081 pf=0.92 status=variable vmaxpu=1.5 vminpu=0.92 daily="RES1_1_DO" 

New "Load.BT_1036700_1_M1" bus1="1001036700.1.2.3.4" phases=3 conn=Delta model=2 kv=0.220000000 kw = 0.3044465 pf=0.92 status=variable vmaxpu=1.5 vminpu=0.92 daily="RES1_11_DO"  
New "Load.BT_1036700_1_M2" bus1="1001036700.1.2.3.4" phases=3 conn=Delta model=3 kv=0.220000000 kw = 0.3044465 pf=0.92 status=variable vmaxpu=1.5 vminpu=0.92 daily="RES1_11_DO" 
New "Load.BT_4403154_1_M1" bus1="1004403154.1.2.3.4" phases=3 conn=Delta model=2 kv=0.220000000 kw = 0.1076435 pf=0.92 status=variable vmaxpu=1.5 vminpu=0.92 daily="RES1_2_DO"  
New "Load.BT_4403154_1_M2" bus1="1004403154.1.2.3.4" phases=3 conn=Delta model=3 kv=0.220000000 kw = 0.1076435 pf=0.92 status=variable vmaxpu=1.5 vminpu=0.92 daily="RES1_2_DO" 
New "Load.BT_1037869_M1" bus1="1001037869.1.2.3.4" phases=3 conn=Delta model=2 kv=0.220000000 kw = 0.3586525 pf=0.92 status=variable vmaxpu=1.5 vminpu=0.92 daily="RES1_9_DO"  
New "Load.BT_1037869_M2" bus1="1001037869.1.2.3.4" phases=3 conn=Delta model=3 kv=0.220000000 kw = 0.3586525 pf=0.92 status=variable vmaxpu=1.5 vminpu=0.92 daily="RES1_9_DO" 
New "Load.BT_1007510_M1" bus1="1001007510.1.4" phases=1 conn=Wye model=2 kv=0.220000000 kw = 0.192333 pf=0.92 status=variable vmaxpu=1.5 vminpu=0.92 daily="RES1_1_DO"  
New "Load.BT_1007510_M2" bus1="1001007510.1.4" phases=1 conn=Wye model=3 kv=0.220000000 kw = 0.192333 pf=0.92 status=variable vmaxpu=1.5 vminpu=0.92 daily="RES1_1_DO" 
New "Load.BT_10091795_M1" bus1="1010091795.1.2.4" phases=1 conn=Delta model=2 kv=0.240000000 kw = 0.377346 pf=0.92 status=variable vmaxpu=1.5 vminpu=0.92 daily="RES1_4_DO"  
New "Load.BT_10091795_M2" bus1="1010091795.1.2.4" phases=1 conn=Delta model=3 kv=0.240000000 kw = 0.377346 pf=0.92 status=variable vmaxpu=1.5 vminpu=0.92 daily="RES1_4_DO" 
New "Load.BT_1012018_M1" bus1="1001012018.2.4" phases=1 conn=Wye model=2 kv=0.220000000 kw = 0.1576065 pf=0.92 status=variable vmaxpu=1.5 vminpu=0.92 daily="RES1_1_DO"  
New "Load.BT_1012018_M2" bus1="1001012018.2.4" phases=1 conn=Wye model=3 kv=0.220000000 kw = 0.1576065 pf=0.92 status=variable vmaxpu=1.5 vminpu=0.92 daily="RES1_1_DO" 

New "Load.BT_1023057_1_M1" bus1="1001023057.1.2.3.4" phases=3 conn=Delta model=2 kv=0.220000000 kw = 0.013067 pf=0.92 status=variable vmaxpu=1.5 vminpu=0.92 daily="RES1_11_DO"  
New "Load.BT_1023057_1_M2" bus1="1001023057.1.2.3.4" phases=3 conn=Delta model=3 kv=0.220000000 kw = 0.013067 pf=0.92 status=variable vmaxpu=1.5 vminpu=0.92 daily="RES1_11_DO" 
New "Load.BT_10237022_1_M1" bus1="1010237022.1.2.3.4" phases=3 conn=Delta model=2 kv=0.220000000 kw = 0.237317 pf=0.92 status=variable vmaxpu=1.5 vminpu=0.92 daily="RES1_17_DO"  
New "Load.BT_10237022_1_M2" bus1="1010237022.1.2.3.4" phases=3 conn=Delta model=3 kv=0.220000000 kw = 0.237317 pf=0.92 status=variable vmaxpu=1.5 vminpu=0.92 daily="RES1_17_DO" 
New "Load.BT_11171629_M1" bus1="1011171629.3.1.4" phases=1 conn=Delta model=2 kv=0.220000000 kw = 0.0 pf=0.92 status=variable vmaxpu=1.5 vminpu=0.92 daily="RES1_6_DO"  
New "Load.BT_11171629_M2" bus1="1011171629.3.1.4" phases=1 conn=Delta model=3 kv=0.220000000 kw = 0.0 pf=0.92 status=variable vmaxpu=1.5 vminpu=0.92 daily="RES1_6_DO" 
New "Load.BT_1011332_1_M1" bus1="1001011332.3.4" phases=1 conn=Wye model=2 kv=0.220000000 kw = 0.247672 pf=0.92 status=variable vmaxpu=1.5 vminpu=0.92 daily="COM1_3_DO"  
New "Load.BT_1011332_1_M2" bus1="1001011332.3.4" phases=1 conn=Wye model=3 kv=0.220000000 kw = 0.247672 pf=0.92 status=variable vmaxpu=1.5 vminpu=0.92 daily="COM1_3_DO" 
New "Load.BT_1020299_1_M1" bus1="1001020299.2.4" phases=1 conn=Wye model=2 kv=0.120000000 kw = 0.0751495 pf=0.92 status=variable vmaxpu=1.5 vminpu=0.92 daily="RES1_4_DO"  
New "Load.BT_1020299_1_M2" bus1="1001020299.2.4" phases=1 conn=Wye model=3 kv=0.120000000 kw = 0.0751495 pf=0.92 status=variable vmaxpu=1.5 vminpu=0.92 daily="RES1_4_DO" 
New "Load.BT_1238209_1_M1" bus1="1001238209.3.1.4" phases=1 conn=Delta model=2 kv=0.220000000 kw = 0.320104 pf=0.92 status=variable vmaxpu=1.5 vminpu=0.92 daily="RES1_23_DO"  
New "Load.BT_1238209_1_M2" bus1="1001238209.3.1.4" phases=1 conn=Delta model=3 kv=0.220000000 kw = 0.320104 pf=0.92 status=variable vmaxpu=1.5 vminpu=0.92 daily="RES1_23_DO" 
New "Load.BT_11133959_M1" bus1="1011133959.1.2.3.4" phases=3 conn=Delta model=2 kv=0.220000000 kw = 0.3545735 pf=0.92 status=variable vmaxpu=1.5 vminpu=0.92 daily="RES1_17_DO"  
New "Load.BT_11133959_M2" bus1="1011133959.1.2.3.4" phases=3 conn=Delta model=3 kv=0.220000000 kw = 0.3545735 pf=0.92 status=variable vmaxpu=1.5 vminpu=0.92 daily="RES1_17_DO" 
New "Load.BT_1017744_1_M1" bus1="1001017744.3.1.4" phases=1 conn=Delta model=2 kv=0.220000000 kw = 0.032199 pf=0.92 status=variable vmaxpu=1.5 vminpu=0.92 daily="COM1_11_DO"  
New "Load.BT_1017744_1_M2" bus1="1001017744.3.1.4" phases=1 conn=Delta model=3 kv=0.220000000 kw = 0.032199 pf=0.92 status=variable vmaxpu=1.5 vminpu=0.92 daily="COM1_11_DO" 
New "Load.BT_1030169_M1" bus1="1001030169.3.1.4" phases=1 conn=Delta model=2 kv=0.220000000 kw = 0.728413 pf=0.92 status=variable vmaxpu=1.5 vminpu=0.92 daily="RES1_2_DO"  
New "Load.BT_1030169_M2" bus1="1001030169.3.1.4" phases=1 conn=Delta model=3 kv=0.220000000 kw = 0.728413 pf=0.92 status=variable vmaxpu=1.5 vminpu=0.92 daily="RES1_2_DO" 
New "Load.BT_998347_M1" bus1="1000998347.2.4" phases=1 conn=Wye model=2 kv=0.120000000 kw = 0.2343095 pf=0.92 status=variable vmaxpu=1.5 vminpu=0.92 daily="RES1_2_DO"  
New "Load.BT_998347_M2" bus1="1000998347.2.4" phases=1 conn=Wye model=3 kv=0.120000000 kw = 0.2343095 pf=0.92 status=variable vmaxpu=1.5 vminpu=0.92 daily="RES1_2_DO" 
New "Load.BT_1042573_M1" bus1="1001042573.1.4" phases=1 conn=Wye model=2 kv=0.220000000 kw = 0.410402 pf=0.92 status=variable vmaxpu=1.5 vminpu=0.92 daily="RES1_19_DO"  
New "Load.BT_1042573_M2" bus1="1001042573.1.4" phases=1 conn=Wye model=3 kv=0.220000000 kw = 0.410402 pf=0.92 status=variable vmaxpu=1.5 vminpu=0.92 daily="RES1_19_DO" 
New "Load.BT_1013796_1_M1" bus1="1001013796.1.2.3.4" phases=3 conn=Delta model=2 kv=0.220000000 kw = 0.137244 pf=0.92 status=variable vmaxpu=1.5 vminpu=0.92 daily="RES1_2_DO"  
New "Load.BT_1013796_1_M2" bus1="1001013796.1.2.3.4" phases=3 conn=Delta model=3 kv=0.220000000 kw = 0.137244 pf=0.92 status=variable vmaxpu=1.5 vminpu=0.92 daily="RES1_2_DO" 
New "Load.BT_1045807_M1" bus1="1001045807.1.2.3.4" phases=3 conn=Delta model=2 kv=0.220000000 kw = 0.2956045 pf=0.92 status=variable vmaxpu=1.5 vminpu=0.92 daily="RES1_19_DO"  
New "Load.BT_1045807_M2" bus1="1001045807.1.2.3.4" phases=3 conn=Delta model=3 kv=0.220000000 kw = 0.2956045 pf=0.92 status=variable vmaxpu=1.5 vminpu=0.92 daily="RES1_19_DO" 
New "Load.BT_1012620_1_M1" bus1="1001012620.1.2.4" phases=1 conn=Delta model=2 kv=0.220000000 kw = 0.055558 pf=0.92 status=variable vmaxpu=1.5 vminpu=0.92 daily="RES1_11_DO"  
New "Load.BT_1012620_1_M2" bus1="1001012620.1.2.4" phases=1 conn=Delta model=3 kv=0.220000000 kw = 0.055558 pf=0.92 status=variable vmaxpu=1.5 vminpu=0.92 daily="RES1_11_DO" 
New "Load.BT_1009666_1_M1" bus1="1001009666.1.4" phases=1 conn=Wye model=2 kv=0.220000000 kw = 0.0528455 pf=0.92 status=variable vmaxpu=1.5 vminpu=0.92 daily="RES1_11_DO"  
New "Load.BT_1009666_1_M2" bus1="1001009666.1.4" phases=1 conn=Wye model=3 kv=0.220000000 kw = 0.0528455 pf=0.92 status=variable vmaxpu=1.5 vminpu=0.92 daily="RES1_11_DO" 
New "Load.BT_10768779_M1" bus1="1010768779.3.1.4" phases=1 conn=Delta model=2 kv=0.220000000 kw = 0.4239915 pf=0.92 status=variable vmaxpu=1.5 vminpu=0.92 daily="RES1_6_DO"  
New "Load.BT_10768779_M2" bus1="1010768779.3.1.4" phases=1 conn=Delta model=3 kv=0.220000000 kw = 0.4239915 pf=0.92 status=variable vmaxpu=1.5 vminpu=0.92 daily="RES1_6_DO" 
New "Load.BT_4857615_2_M1" bus1="1004857615.1.2.3.4" phases=3 conn=Delta model=2 kv=0.220000000 kw = 0.363062 pf=0.92 status=variable vmaxpu=1.5 vminpu=0.92 daily="RES1_11_DO"  
New "Load.BT_4857615_2_M2" bus1="1004857615.1.2.3.4" phases=3 conn=Delta model=3 kv=0.220000000 kw = 0.363062 pf=0.92 status=variable vmaxpu=1.5 vminpu=0.92 daily="RES1_11_DO" 
New "Load.BT_1016904_M1" bus1="1001016904.3.4" phases=1 conn=Wye model=2 kv=0.220000000 kw = 0.332926 pf=0.92 status=variable vmaxpu=1.5 vminpu=0.92 daily="RES1_7_DO"  
New "Load.BT_1016904_M2" bus1="1001016904.3.4" phases=1 conn=Wye model=3 kv=0.220000000 kw = 0.332926 pf=0.92 status=variable vmaxpu=1.5 vminpu=0.92 daily="RES1_7_DO" 
New "Load.BT_3953810_1_M1" bus1="1003953810.1.2.3.4" phases=3 conn=Delta model=2 kv=0.220000000 kw = 0.098398 pf=0.92 status=variable vmaxpu=1.5 vminpu=0.92 daily="RES1_6_DO"  
New "Load.BT_3953810_1_M2" bus1="1003953810.1.2.3.4" phases=3 conn=Delta model=3 kv=0.220000000 kw = 0.098398 pf=0.92 status=variable vmaxpu=1.5 vminpu=0.92 daily="RES1_6_DO" 
New "Load.BT_1041201_M1" bus1="1001041201.1.2.3.4" phases=3 conn=Delta model=2 kv=0.220000000 kw = 0.2137015 pf=0.92 status=variable vmaxpu=1.5 vminpu=0.92 daily="RES1_19_DO"  
New "Load.BT_1041201_M2" bus1="1001041201.1.2.3.4" phases=3 conn=Delta model=3 kv=0.220000000 kw = 0.2137015 pf=0.92 status=variable vmaxpu=1.5 vminpu=0.92 daily="RES1_19_DO" 
New "Load.BT_11088406_M1" bus1="1011088406.1.2.4" phases=1 conn=Delta model=2 kv=0.220000000 kw = 0.1335475 pf=0.92 status=variable vmaxpu=1.5 vminpu=0.92 daily="RES1_2_DO"  
New "Load.BT_11088406_M2" bus1="1011088406.1.2.4" phases=1 conn=Delta model=3 kv=0.220000000 kw = 0.1335475 pf=0.92 status=variable vmaxpu=1.5 vminpu=0.92 daily="RES1_2_DO" 
New "Load.BT_1023960_M1" bus1="1001023960.1.2.3.4" phases=3 conn=Delta model=2 kv=0.220000000 kw = 1.212101 pf=0.92 status=variable vmaxpu=1.5 vminpu=0.92 daily="COM1_5_DO"  
New "Load.BT_1023960_M2" bus1="1001023960.1.2.3.4" phases=3 conn=Delta model=3 kv=0.220000000 kw = 1.212101 pf=0.92 status=variable vmaxpu=1.5 vminpu=0.92 daily="COM1_5_DO" 
New "Load.BT_10293138_M1" bus1="1010293138.1.2.4" phases=1 conn=Delta model=2 kv=0.220000000 kw = 0.005605 pf=0.92 status=variable vmaxpu=1.5 vminpu=0.92 daily="RES1_8_DO"  
New "Load.BT_10293138_M2" bus1="1010293138.1.2.4" phases=1 conn=Delta model=3 kv=0.220000000 kw = 0.005605 pf=0.92 status=variable vmaxpu=1.5 vminpu=0.92 daily="RES1_8_DO" 
New "Load.BT_1007531_1_M1" bus1="1001007531.1.4" phases=1 conn=Wye model=2 kv=0.220000000 kw = 0.072586 pf=0.92 status=variable vmaxpu=1.5 vminpu=0.92 daily="RES1_11_DO"  
New "Load.BT_1007531_1_M2" bus1="1001007531.1.4" phases=1 conn=Wye model=3 kv=0.220000000 kw = 0.072586 pf=0.92 status=variable vmaxpu=1.5 vminpu=0.92 daily="RES1_11_DO" 
New "Load.BT_1015063_M1" bus1="1001015063.3.4" phases=1 conn=Wye model=2 kv=0.220000000 kw = 0.1869115 pf=0.92 status=variable vmaxpu=1.5 vminpu=0.92 daily="RES1_26_DO"  
New "Load.BT_1015063_M2" bus1="1001015063.3.4" phases=1 conn=Wye model=3 kv=0.220000000 kw = 0.1869115 pf=0.92 status=variable vmaxpu=1.5 vminpu=0.92 daily="RES1_26_DO" 

New "Load.BT_1017604_1_M1" bus1="1001017604.1.2.3.4" phases=3 conn=Delta model=2 kv=0.220000000 kw = 0.000873 pf=0.92 status=variable vmaxpu=1.5 vminpu=0.92 daily="COM1_11_DO"  
New "Load.BT_1017604_1_M2" bus1="1001017604.1.2.3.4" phases=3 conn=Delta model=3 kv=0.220000000 kw = 0.000873 pf=0.92 status=variable vmaxpu=1.5 vminpu=0.92 daily="COM1_11_DO" 
New "Load.BT_1007657_1_M1" bus1="1001007657.3.1.4" phases=1 conn=Delta model=2 kv=0.220000000 kw = 0.152675 pf=0.92 status=variable vmaxpu=1.5 vminpu=0.92 daily="RES1_11_DO"  
New "Load.BT_1007657_1_M2" bus1="1001007657.3.1.4" phases=1 conn=Delta model=3 kv=0.220000000 kw = 0.152675 pf=0.92 status=variable vmaxpu=1.5 vminpu=0.92 daily="RES1_11_DO" 
New "Load.BT_1033809_1_M1" bus1="1001033809.1.2.3.4" phases=3 conn=Delta model=2 kv=0.220000000 kw = 0.3805845 pf=0.92 status=variable vmaxpu=1.5 vminpu=0.92 daily="RES1_2_DO"  
New "Load.BT_1033809_1_M2" bus1="1001033809.1.2.3.4" phases=3 conn=Delta model=3 kv=0.220000000 kw = 0.3805845 pf=0.92 status=variable vmaxpu=1.5 vminpu=0.92 daily="RES1_2_DO" 
New "Load.BT_10382334_1_M1" bus1="1010382334.1.2.3.4" phases=3 conn=Delta model=2 kv=0.220000000 kw = 0.2347445 pf=0.92 status=variable vmaxpu=1.5 vminpu=0.92 daily="RES1_21_DO"  
New "Load.BT_10382334_1_M2" bus1="1010382334.1.2.3.4" phases=3 conn=Delta model=3 kv=0.220000000 kw = 0.2347445 pf=0.92 status=variable vmaxpu=1.5 vminpu=0.92 daily="RES1_21_DO" 
New "Load.BT_1013796_2_M1" bus1="1001013796.1.2.3.4" phases=3 conn=Delta model=2 kv=0.220000000 kw = 0.042958 pf=0.92 status=variable vmaxpu=1.5 vminpu=0.92 daily="RES1_2_DO"  
New "Load.BT_1013796_2_M2" bus1="1001013796.1.2.3.4" phases=3 conn=Delta model=3 kv=0.220000000 kw = 0.042958 pf=0.92 status=variable vmaxpu=1.5 vminpu=0.92 daily="RES1_2_DO" 
New "Load.BT_1011024_1_M1" bus1="1001011024.1.2.3.4" phases=3 conn=Delta model=2 kv=0.220000000 kw = 0.227482 pf=0.92 status=variable vmaxpu=1.5 vminpu=0.92 daily="RES1_9_DO"  
New "Load.BT_1011024_1_M2" bus1="1001011024.1.2.3.4" phases=3 conn=Delta model=3 kv=0.220000000 kw = 0.227482 pf=0.92 status=variable vmaxpu=1.5 vminpu=0.92 daily="RES1_9_DO" 

New "Load.BT_1018759_M1" bus1="1001018759.1.2.4" phases=1 conn=Delta model=2 kv=0.220000000 kw = 0.2193955 pf=0.92 status=variable vmaxpu=1.5 vminpu=0.92 daily="COM1_17_DO"  
New "Load.BT_1018759_M2" bus1="1001018759.1.2.4" phases=1 conn=Delta model=3 kv=0.220000000 kw = 0.2193955 pf=0.92 status=variable vmaxpu=1.5 vminpu=0.92 daily="COM1_17_DO" 
New "Load.BT_10279082_M1" bus1="1010279082.1.2.3.4" phases=3 conn=Delta model=2 kv=0.220000000 kw = 0.505783 pf=0.92 status=variable vmaxpu=1.5 vminpu=0.92 daily="RES1_1_DO"  
New "Load.BT_10279082_M2" bus1="1010279082.1.2.3.4" phases=3 conn=Delta model=3 kv=0.220000000 kw = 0.505783 pf=0.92 status=variable vmaxpu=1.5 vminpu=0.92 daily="RES1_1_DO" 
New "Load.BT_1219407_1_M1" bus1="1001219407.1.2.3.4" phases=3 conn=Delta model=2 kv=0.220000000 kw = 0.136519 pf=0.92 status=variable vmaxpu=1.5 vminpu=0.92 daily="COM1_14_DO"  
New "Load.BT_1219407_1_M2" bus1="1001219407.1.2.3.4" phases=3 conn=Delta model=3 kv=0.220000000 kw = 0.136519 pf=0.92 status=variable vmaxpu=1.5 vminpu=0.92 daily="COM1_14_DO" 
New "Load.BT_1034719_M1" bus1="1001034719.1.2.3.4" phases=3 conn=Delta model=2 kv=0.220000000 kw = 0.1425475 pf=0.92 status=variable vmaxpu=1.5 vminpu=0.92 daily="RES1_5_DO"  
New "Load.BT_1034719_M2" bus1="1001034719.1.2.3.4" phases=3 conn=Delta model=3 kv=0.220000000 kw = 0.1425475 pf=0.92 status=variable vmaxpu=1.5 vminpu=0.92 daily="RES1_5_DO" 
New "Load.BT_1042216_1_M1" bus1="1001042216.1.2.3.4" phases=3 conn=Delta model=2 kv=0.220000000 kw = 0.3677565 pf=0.92 status=variable vmaxpu=1.5 vminpu=0.92 daily="RES1_19_DO"  
New "Load.BT_1042216_1_M2" bus1="1001042216.1.2.3.4" phases=3 conn=Delta model=3 kv=0.220000000 kw = 0.3677565 pf=0.92 status=variable vmaxpu=1.5 vminpu=0.92 daily="RES1_19_DO" 
New "Load.BT_1007412_1_M1" bus1="1001007412.3.1.4" phases=1 conn=Delta model=2 kv=0.220000000 kw = 0.0002965 pf=0.92 status=variable vmaxpu=1.5 vminpu=0.92 daily="RES1_1_DO"  
New "Load.BT_1007412_1_M2" bus1="1001007412.3.1.4" phases=1 conn=Delta model=3 kv=0.220000000 kw = 0.0002965 pf=0.92 status=variable vmaxpu=1.5 vminpu=0.92 daily="RES1_1_DO" 
New "Load.BT_10367201_1_M1" bus1="1010367201.1.2.4" phases=1 conn=Delta model=2 kv=0.220000000 kw = 0.293744 pf=0.92 status=variable vmaxpu=1.5 vminpu=0.92 daily="RES1_4_DO"  
New "Load.BT_10367201_1_M2" bus1="1010367201.1.2.4" phases=1 conn=Delta model=3 kv=0.220000000 kw = 0.293744 pf=0.92 status=variable vmaxpu=1.5 vminpu=0.92 daily="RES1_4_DO" 
New "Load.BT_1025017_1_M1" bus1="1001025017.1.2.3.4" phases=3 conn=Delta model=2 kv=0.220000000 kw = 0.1604285 pf=0.92 status=variable vmaxpu=1.5 vminpu=0.92 daily="RES1_2_DO"  
New "Load.BT_1025017_1_M2" bus1="1001025017.1.2.3.4" phases=3 conn=Delta model=3 kv=0.220000000 kw = 0.1604285 pf=0.92 status=variable vmaxpu=1.5 vminpu=0.92 daily="RES1_2_DO" 
New "Load.BT_1017597_1_M1" bus1="1001017597.3.4" phases=1 conn=Wye model=2 kv=0.220000000 kw = 0.0 pf=0.92 status=variable vmaxpu=1.5 vminpu=0.92 daily="COM1_7_DO"  
New "Load.BT_1017597_1_M2" bus1="1001017597.3.4" phases=1 conn=Wye model=3 kv=0.220000000 kw = 0.0 pf=0.92 status=variable vmaxpu=1.5 vminpu=0.92 daily="COM1_7_DO" 

New "Load.BT_994315_1_M1" bus1="1000994315.2.4" phases=1 conn=Wye model=2 kv=0.220000000 kw = 0.156379 pf=0.92 status=variable vmaxpu=1.5 vminpu=0.92 daily="RES1_14_DO"  
New "Load.BT_994315_1_M2" bus1="1000994315.2.4" phases=1 conn=Wye model=3 kv=0.220000000 kw = 0.156379 pf=0.92 status=variable vmaxpu=1.5 vminpu=0.92 daily="RES1_14_DO" 
New "Load.BT_11308469_M1" bus1="1011308469.1.2.3.4" phases=3 conn=Delta model=2 kv=0.220000000 kw = 0.2238205 pf=0.92 status=variable vmaxpu=1.5 vminpu=0.92 daily="RES1_7_DO"  
New "Load.BT_11308469_M2" bus1="1011308469.1.2.3.4" phases=3 conn=Delta model=3 kv=0.220000000 kw = 0.2238205 pf=0.92 status=variable vmaxpu=1.5 vminpu=0.92 daily="RES1_7_DO" 
New "Load.BT_1021643_M1" bus1="1001021643.2.3.4" phases=1 conn=Delta model=2 kv=0.220000000 kw = 0.0178375 pf=0.92 status=variable vmaxpu=1.5 vminpu=0.92 daily="COM1_11_DO"  
New "Load.BT_1021643_M2" bus1="1001021643.2.3.4" phases=1 conn=Delta model=3 kv=0.220000000 kw = 0.0178375 pf=0.92 status=variable vmaxpu=1.5 vminpu=0.92 daily="COM1_11_DO" 
New "Load.BT_4776198_M1" bus1="1004776198.1.4" phases=1 conn=Wye model=2 kv=0.220000000 kw = 0.1053645 pf=0.92 status=variable vmaxpu=1.5 vminpu=0.92 daily="RES1_23_DO"  
New "Load.BT_4776198_M2" bus1="1004776198.1.4" phases=1 conn=Wye model=3 kv=0.220000000 kw = 0.1053645 pf=0.92 status=variable vmaxpu=1.5 vminpu=0.92 daily="RES1_23_DO" 
New "Load.BT_1021118_M1" bus1="1001021118.1.2.3.4" phases=3 conn=Delta model=2 kv=0.220000000 kw = 0.3056705 pf=0.92 status=variable vmaxpu=1.5 vminpu=0.92 daily="COM1_6_DO"  
New "Load.BT_1021118_M2" bus1="1001021118.1.2.3.4" phases=3 conn=Delta model=3 kv=0.220000000 kw = 0.3056705 pf=0.92 status=variable vmaxpu=1.5 vminpu=0.92 daily="COM1_6_DO" 
New "Load.BT_1012627_M1" bus1="1001012627.1.4" phases=1 conn=Wye model=2 kv=0.220000000 kw = 0.609538 pf=0.92 status=variable vmaxpu=1.5 vminpu=0.92 daily="RES1_26_DO"  
New "Load.BT_1012627_M2" bus1="1001012627.1.4" phases=1 conn=Wye model=3 kv=0.220000000 kw = 0.609538 pf=0.92 status=variable vmaxpu=1.5 vminpu=0.92 daily="RES1_26_DO" 
New "Load.BT_1043392_M1" bus1="1001043392.1.2.3.4" phases=3 conn=Delta model=2 kv=0.220000000 kw = 0.395311 pf=0.92 status=variable vmaxpu=1.5 vminpu=0.92 daily="RES1_19_DO"  
New "Load.BT_1043392_M2" bus1="1001043392.1.2.3.4" phases=3 conn=Delta model=3 kv=0.220000000 kw = 0.395311 pf=0.92 status=variable vmaxpu=1.5 vminpu=0.92 daily="RES1_19_DO" 
New "Load.BT_4087006_M1" bus1="1004087006.1.2.4" phases=1 conn=Delta model=2 kv=0.220000000 kw = 0.290641 pf=0.92 status=variable vmaxpu=1.5 vminpu=0.92 daily="RES1_2_DO"  
New "Load.BT_4087006_M2" bus1="1004087006.1.2.4" phases=1 conn=Delta model=3 kv=0.220000000 kw = 0.290641 pf=0.92 status=variable vmaxpu=1.5 vminpu=0.92 daily="RES1_2_DO" 
New "Load.BT_4807852_M1" bus1="1004807852.1.2.4" phases=1 conn=Delta model=2 kv=0.220000000 kw = 0.2896685 pf=0.92 status=variable vmaxpu=1.5 vminpu=0.92 daily="RES1_12_DO"  
New "Load.BT_4807852_M2" bus1="1004807852.1.2.4" phases=1 conn=Delta model=3 kv=0.220000000 kw = 0.2896685 pf=0.92 status=variable vmaxpu=1.5 vminpu=0.92 daily="RES1_12_DO" 
New "Load.BT_1030022_M1" bus1="1001030022.2.4" phases=1 conn=Wye model=2 kv=0.220000000 kw = 0.336349 pf=0.92 status=variable vmaxpu=1.5 vminpu=0.92 daily="RES1_2_DO"  
New "Load.BT_1030022_M2" bus1="1001030022.2.4" phases=1 conn=Wye model=3 kv=0.220000000 kw = 0.336349 pf=0.92 status=variable vmaxpu=1.5 vminpu=0.92 daily="RES1_2_DO" 

New "Load.BT_4464467_M1" bus1="1004464467.1.2.4" phases=1 conn=Delta model=2 kv=0.220000000 kw = 0.3285655 pf=0.92 status=variable vmaxpu=1.5 vminpu=0.92 daily="RES1_2_DO"  
New "Load.BT_4464467_M2" bus1="1004464467.1.2.4" phases=1 conn=Delta model=3 kv=0.220000000 kw = 0.3285655 pf=0.92 status=variable vmaxpu=1.5 vminpu=0.92 daily="RES1_2_DO" 
New "Load.BT_1005256_M1" bus1="1001005256.3.4" phases=1 conn=Wye model=2 kv=0.220000000 kw = 0.177153 pf=0.92 status=variable vmaxpu=1.5 vminpu=0.92 daily="RES1_23_DO"  
New "Load.BT_1005256_M2" bus1="1001005256.3.4" phases=1 conn=Wye model=3 kv=0.220000000 kw = 0.177153 pf=0.92 status=variable vmaxpu=1.5 vminpu=0.92 daily="RES1_23_DO" 
New "Load.BT_4857615_3_M1" bus1="1004857615.1.2.3.4" phases=3 conn=Delta model=2 kv=0.220000000 kw = 0.4611075 pf=0.92 status=variable vmaxpu=1.5 vminpu=0.92 daily="RES1_16_DO"  
New "Load.BT_4857615_3_M2" bus1="1004857615.1.2.3.4" phases=3 conn=Delta model=3 kv=0.220000000 kw = 0.4611075 pf=0.92 status=variable vmaxpu=1.5 vminpu=0.92 daily="RES1_16_DO" 
New "Load.BT_1033718_1_M1" bus1="1001033718.1.2.3.4" phases=3 conn=Delta model=2 kv=0.220000000 kw = 0.1919975 pf=0.92 status=variable vmaxpu=1.5 vminpu=0.92 daily="RES1_2_DO"  
New "Load.BT_1033718_1_M2" bus1="1001033718.1.2.3.4" phases=3 conn=Delta model=3 kv=0.220000000 kw = 0.1919975 pf=0.92 status=variable vmaxpu=1.5 vminpu=0.92 daily="RES1_2_DO" 
New "Load.BT_1025507_1_M1" bus1="1001025507.1.2.4" phases=1 conn=Delta model=2 kv=0.220000000 kw = 0.2376905 pf=0.92 status=variable vmaxpu=1.5 vminpu=0.92 daily="RES1_4_DO"  
New "Load.BT_1025507_1_M2" bus1="1001025507.1.2.4" phases=1 conn=Delta model=3 kv=0.220000000 kw = 0.2376905 pf=0.92 status=variable vmaxpu=1.5 vminpu=0.92 daily="RES1_4_DO" 
New "Load.BT_10139470_1_M1" bus1="1010139470.1.2.3.4" phases=3 conn=Delta model=2 kv=0.220000000 kw = 0.066233 pf=0.92 status=variable vmaxpu=1.5 vminpu=0.92 daily="RES1_17_DO"  
New "Load.BT_10139470_1_M2" bus1="1010139470.1.2.3.4" phases=3 conn=Delta model=3 kv=0.220000000 kw = 0.066233 pf=0.92 status=variable vmaxpu=1.5 vminpu=0.92 daily="RES1_17_DO" 
New "Load.BT_1024485_1_M1" bus1="1001024485.1.2.4" phases=1 conn=Delta model=2 kv=0.240000000 kw = 0.2031455 pf=0.92 status=variable vmaxpu=1.5 vminpu=0.92 daily="RES1_12_DO"  
New "Load.BT_1024485_1_M2" bus1="1001024485.1.2.4" phases=1 conn=Delta model=3 kv=0.240000000 kw = 0.2031455 pf=0.92 status=variable vmaxpu=1.5 vminpu=0.92 daily="RES1_12_DO" 
New "Load.BT_1041327_1_M1" bus1="1001041327.1.2.3.4" phases=3 conn=Delta model=2 kv=0.220000000 kw = 0.1345315 pf=0.92 status=variable vmaxpu=1.5 vminpu=0.92 daily="RES1_19_DO"  
New "Load.BT_1041327_1_M2" bus1="1001041327.1.2.3.4" phases=3 conn=Delta model=3 kv=0.220000000 kw = 0.1345315 pf=0.92 status=variable vmaxpu=1.5 vminpu=0.92 daily="RES1_19_DO" 
New "Load.BT_1017002_1_M1" bus1="1001017002.1.2.3.4" phases=3 conn=Delta model=2 kv=0.220000000 kw = 0.080619 pf=0.92 status=variable vmaxpu=1.5 vminpu=0.92 daily="COM1_19_DO"  
New "Load.BT_1017002_1_M2" bus1="1001017002.1.2.3.4" phases=3 conn=Delta model=3 kv=0.220000000 kw = 0.080619 pf=0.92 status=variable vmaxpu=1.5 vminpu=0.92 daily="COM1_19_DO" 
New "Load.BT_1007776_1_M1" bus1="1001007776.1.2.4" phases=1 conn=Delta model=2 kv=0.220000000 kw = 0.026488 pf=0.92 status=variable vmaxpu=1.5 vminpu=0.92 daily="RES1_11_DO"  
New "Load.BT_1007776_1_M2" bus1="1001007776.1.2.4" phases=1 conn=Delta model=3 kv=0.220000000 kw = 0.026488 pf=0.92 status=variable vmaxpu=1.5 vminpu=0.92 daily="RES1_11_DO" 
New "Load.BT_1204126_1_M1" bus1="1001204126.1.2.3.4" phases=3 conn=Delta model=2 kv=0.220000000 kw = 0.043283 pf=0.92 status=variable vmaxpu=1.5 vminpu=0.92 daily="COM1_14_DO"  
New "Load.BT_1204126_1_M2" bus1="1001204126.1.2.3.4" phases=3 conn=Delta model=3 kv=0.220000000 kw = 0.043283 pf=0.92 status=variable vmaxpu=1.5 vminpu=0.92 daily="COM1_14_DO" 
New "Load.BT_1036735_1_M1" bus1="1001036735.1.4" phases=1 conn=Wye model=2 kv=0.220000000 kw = 0.3337745 pf=0.92 status=variable vmaxpu=1.5 vminpu=0.92 daily="RES1_5_DO"  
New "Load.BT_1036735_1_M2" bus1="1001036735.1.4" phases=1 conn=Wye model=3 kv=0.220000000 kw = 0.3337745 pf=0.92 status=variable vmaxpu=1.5 vminpu=0.92 daily="RES1_5_DO" 
New "Load.BT_1020005_1_M1" bus1="1001020005.3.4" phases=1 conn=Wye model=2 kv=0.220000000 kw = 0.2475165 pf=0.92 status=variable vmaxpu=1.5 vminpu=0.92 daily="RES1_12_DO"  
New "Load.BT_1020005_1_M2" bus1="1001020005.3.4" phases=1 conn=Wye model=3 kv=0.220000000 kw = 0.2475165 pf=0.92 status=variable vmaxpu=1.5 vminpu=0.92 daily="RES1_12_DO" 
New "Load.BT_995778_1_M1" bus1="1000995778.3.4" phases=1 conn=Wye model=2 kv=0.220000000 kw = 0.1680645 pf=0.92 status=variable vmaxpu=1.5 vminpu=0.92 daily="RES1_1_DO"  
New "Load.BT_995778_1_M2" bus1="1000995778.3.4" phases=1 conn=Wye model=3 kv=0.220000000 kw = 0.1680645 pf=0.92 status=variable vmaxpu=1.5 vminpu=0.92 daily="RES1_1_DO" 
New "Load.BT_1045891_M1" bus1="1001045891.1.2.4" phases=1 conn=Delta model=2 kv=0.220000000 kw = 0.191909 pf=0.92 status=variable vmaxpu=1.5 vminpu=0.92 daily="RES1_19_DO"  
New "Load.BT_1045891_M2" bus1="1001045891.1.2.4" phases=1 conn=Delta model=3 kv=0.220000000 kw = 0.191909 pf=0.92 status=variable vmaxpu=1.5 vminpu=0.92 daily="RES1_19_DO" 
New "Load.BT_1007776_2_M1" bus1="1001007776.1.2.4" phases=1 conn=Delta model=2 kv=0.220000000 kw = 0.004548 pf=0.92 status=variable vmaxpu=1.5 vminpu=0.92 daily="RES1_11_DO"  
New "Load.BT_1007776_2_M2" bus1="1001007776.1.2.4" phases=1 conn=Delta model=3 kv=0.220000000 kw = 0.004548 pf=0.92 status=variable vmaxpu=1.5 vminpu=0.92 daily="RES1_11_DO" 
New "Load.BT_3667923_M1" bus1="1003667923.3.1.4" phases=1 conn=Delta model=2 kv=0.220000000 kw = 0.06649 pf=0.92 status=variable vmaxpu=1.5 vminpu=0.92 daily="RES1_14_DO"  
New "Load.BT_3667923_M2" bus1="1003667923.3.1.4" phases=1 conn=Delta model=3 kv=0.220000000 kw = 0.06649 pf=0.92 status=variable vmaxpu=1.5 vminpu=0.92 daily="RES1_14_DO" 
New "Load.BT_1011969_M1" bus1="1001011969.2.4" phases=1 conn=Wye model=2 kv=0.220000000 kw = 0.2274965 pf=0.92 status=variable vmaxpu=1.5 vminpu=0.92 daily="RES1_1_DO"  
New "Load.BT_1011969_M2" bus1="1001011969.2.4" phases=1 conn=Wye model=3 kv=0.220000000 kw = 0.2274965 pf=0.92 status=variable vmaxpu=1.5 vminpu=0.92 daily="RES1_1_DO" 
New "Load.BT_1018290_M1" bus1="1001018290.2.4" phases=1 conn=Wye model=2 kv=0.220000000 kw = 0.106544 pf=0.92 status=variable vmaxpu=1.5 vminpu=0.92 daily="RES1_7_DO"  
New "Load.BT_1018290_M2" bus1="1001018290.2.4" phases=1 conn=Wye model=3 kv=0.220000000 kw = 0.106544 pf=0.92 status=variable vmaxpu=1.5 vminpu=0.92 daily="RES1_7_DO" 
New "Load.BT_11016062_M1" bus1="1011016062.1.2.4" phases=1 conn=Delta model=2 kv=0.220000000 kw = 0.1919225 pf=0.92 status=variable vmaxpu=1.5 vminpu=0.92 daily="RES1_2_DO"  
New "Load.BT_11016062_M2" bus1="1011016062.1.2.4" phases=1 conn=Delta model=3 kv=0.220000000 kw = 0.1919225 pf=0.92 status=variable vmaxpu=1.5 vminpu=0.92 daily="RES1_2_DO" 
New "Load.BT_1027880_M1" bus1="1001027880.3.4" phases=1 conn=Wye model=2 kv=0.220000000 kw = 0.229291 pf=0.92 status=variable vmaxpu=1.5 vminpu=0.92 daily="RES1_2_DO"  
New "Load.BT_1027880_M2" bus1="1001027880.3.4" phases=1 conn=Wye model=3 kv=0.220000000 kw = 0.229291 pf=0.92 status=variable vmaxpu=1.5 vminpu=0.92 daily="RES1_2_DO" 
New "Load.BT_11409246_1_M1" bus1="1011409246.1.2.3.4" phases=3 conn=Delta model=2 kv=0.220000000 kw = 0.113003 pf=0.92 status=variable vmaxpu=1.5 vminpu=0.92 daily="RES1_14_DO"  
New "Load.BT_11409246_1_M2" bus1="1011409246.1.2.3.4" phases=3 conn=Delta model=3 kv=0.220000000 kw = 0.113003 pf=0.92 status=variable vmaxpu=1.5 vminpu=0.92 daily="RES1_14_DO" 

New "Load.BT_1018458_M1" bus1="1001018458.1.2.3.4" phases=3 conn=Delta model=2 kv=0.220000000 kw = 0.1737135 pf=0.92 status=variable vmaxpu=1.5 vminpu=0.92 daily="RES1_7_DO"  
New "Load.BT_1018458_M2" bus1="1001018458.1.2.3.4" phases=3 conn=Delta model=3 kv=0.220000000 kw = 0.1737135 pf=0.92 status=variable vmaxpu=1.5 vminpu=0.92 daily="RES1_7_DO" 
New "Load.BT_4270686_M1" bus1="1004270686.3.1.4" phases=1 conn=Delta model=2 kv=0.220000000 kw = 0.039659 pf=0.92 status=variable vmaxpu=1.5 vminpu=0.92 daily="COM1_13_DO"  
New "Load.BT_4270686_M2" bus1="1004270686.3.1.4" phases=1 conn=Delta model=3 kv=0.220000000 kw = 0.039659 pf=0.92 status=variable vmaxpu=1.5 vminpu=0.92 daily="COM1_13_DO" 
New "Load.BT_3879505_1_M1" bus1="1003879505.3.4" phases=1 conn=Wye model=2 kv=0.220000000 kw = 0.1241265 pf=0.92 status=variable vmaxpu=1.5 vminpu=0.92 daily="RES1_2_DO"  
New "Load.BT_3879505_1_M2" bus1="1003879505.3.4" phases=1 conn=Wye model=3 kv=0.220000000 kw = 0.1241265 pf=0.92 status=variable vmaxpu=1.5 vminpu=0.92 daily="RES1_2_DO" 
New "Load.BT_6474843_1_M1" bus1="1006474843.1.2.3.4" phases=3 conn=Delta model=2 kv=0.220000000 kw = 0.284851 pf=0.92 status=variable vmaxpu=1.5 vminpu=0.92 daily="RES1_1_DO"  
New "Load.BT_6474843_1_M2" bus1="1006474843.1.2.3.4" phases=3 conn=Delta model=3 kv=0.220000000 kw = 0.284851 pf=0.92 status=variable vmaxpu=1.5 vminpu=0.92 daily="RES1_1_DO" 
New "Load.BT_1020327_1_M1" bus1="1001020327.1.2.4" phases=1 conn=Delta model=2 kv=0.240000000 kw = 0.170664 pf=0.92 status=variable vmaxpu=1.5 vminpu=0.92 daily="RES1_4_DO"  
New "Load.BT_1020327_1_M2" bus1="1001020327.1.2.4" phases=1 conn=Delta model=3 kv=0.240000000 kw = 0.170664 pf=0.92 status=variable vmaxpu=1.5 vminpu=0.92 daily="RES1_4_DO" 
New "Load.BT_1204126_2_M1" bus1="1001204126.1.2.3.4" phases=3 conn=Delta model=2 kv=0.220000000 kw = 0.140966 pf=0.92 status=variable vmaxpu=1.5 vminpu=0.92 daily="COM1_14_DO"  
New "Load.BT_1204126_2_M2" bus1="1001204126.1.2.3.4" phases=3 conn=Delta model=3 kv=0.220000000 kw = 0.140966 pf=0.92 status=variable vmaxpu=1.5 vminpu=0.92 daily="COM1_14_DO" 
New "Load.BT_5024362_M1" bus1="1005024362.1.2.3.4" phases=3 conn=Delta model=2 kv=0.220000000 kw = 0.0 pf=0.92 status=variable vmaxpu=1.5 vminpu=0.92 daily="COM1_21_DO"  
New "Load.BT_5024362_M2" bus1="1005024362.1.2.3.4" phases=3 conn=Delta model=3 kv=0.220000000 kw = 0.0 pf=0.92 status=variable vmaxpu=1.5 vminpu=0.92 daily="COM1_21_DO" 
New "Load.BT_10761308_1_M1" bus1="1010761308.1.2.3.4" phases=3 conn=Delta model=2 kv=0.220000000 kw = 0.340231 pf=0.92 status=variable vmaxpu=1.5 vminpu=0.92 daily="RES1_18_DO"  
New "Load.BT_10761308_1_M2" bus1="1010761308.1.2.3.4" phases=3 conn=Delta model=3 kv=0.220000000 kw = 0.340231 pf=0.92 status=variable vmaxpu=1.5 vminpu=0.92 daily="RES1_18_DO" 
New "Load.BT_1243732_M1" bus1="1001243732.3.4" phases=1 conn=Wye model=2 kv=0.220000000 kw = 0.169987 pf=0.92 status=variable vmaxpu=1.5 vminpu=0.92 daily="RES1_25_DO"  
New "Load.BT_1243732_M2" bus1="1001243732.3.4" phases=1 conn=Wye model=3 kv=0.220000000 kw = 0.169987 pf=0.92 status=variable vmaxpu=1.5 vminpu=0.92 daily="RES1_25_DO" 
New "Load.BT_5052075_1_M1" bus1="1005052075.1.2.4" phases=1 conn=Delta model=2 kv=0.220000000 kw = 0.167509 pf=0.92 status=variable vmaxpu=1.5 vminpu=0.92 daily="COM1_4_DO"  
New "Load.BT_5052075_1_M2" bus1="1005052075.1.2.4" phases=1 conn=Delta model=3 kv=0.220000000 kw = 0.167509 pf=0.92 status=variable vmaxpu=1.5 vminpu=0.92 daily="COM1_4_DO" 
New "Load.BT_1011780_M1" bus1="1001011780.1.4" phases=1 conn=Wye model=2 kv=0.220000000 kw = 0.2696825 pf=0.92 status=variable vmaxpu=1.5 vminpu=0.92 daily="RES1_26_DO"  
New "Load.BT_1011780_M2" bus1="1001011780.1.4" phases=1 conn=Wye model=3 kv=0.220000000 kw = 0.2696825 pf=0.92 status=variable vmaxpu=1.5 vminpu=0.92 daily="RES1_26_DO" 
New "Load.BT_4157265_1_M1" bus1="1004157265.1.2.3.4" phases=3 conn=Delta model=2 kv=0.220000000 kw = 0.098102 pf=0.92 status=variable vmaxpu=1.5 vminpu=0.92 daily="RES1_2_DO"  
New "Load.BT_4157265_1_M2" bus1="1004157265.1.2.3.4" phases=3 conn=Delta model=3 kv=0.220000000 kw = 0.098102 pf=0.92 status=variable vmaxpu=1.5 vminpu=0.92 daily="RES1_2_DO" 
New "Load.BT_1007937_M1" bus1="1001007937.1.4" phases=1 conn=Wye model=2 kv=0.220000000 kw = 0.1793685 pf=0.92 status=variable vmaxpu=1.5 vminpu=0.92 daily="RES1_11_DO"  
New "Load.BT_1007937_M2" bus1="1001007937.1.4" phases=1 conn=Wye model=3 kv=0.220000000 kw = 0.1793685 pf=0.92 status=variable vmaxpu=1.5 vminpu=0.92 daily="RES1_11_DO" 
New "Load.BT_1031254_M1" bus1="1001031254.1.2.3.4" phases=3 conn=Delta model=2 kv=0.220000000 kw = 0.3526515 pf=0.92 status=variable vmaxpu=1.5 vminpu=0.92 daily="RES1_2_DO"  
New "Load.BT_1031254_M2" bus1="1001031254.1.2.3.4" phases=3 conn=Delta model=3 kv=0.220000000 kw = 0.3526515 pf=0.92 status=variable vmaxpu=1.5 vminpu=0.92 daily="RES1_2_DO" 
New "Load.BT_1007517_1_M1" bus1="1001007517.1.2.3.4" phases=3 conn=Delta model=2 kv=0.220000000 kw = 0.100109 pf=0.92 status=variable vmaxpu=1.5 vminpu=0.92 daily="RES1_11_DO"  
New "Load.BT_1007517_1_M2" bus1="1001007517.1.2.3.4" phases=3 conn=Delta model=3 kv=0.220000000 kw = 0.100109 pf=0.92 status=variable vmaxpu=1.5 vminpu=0.92 daily="RES1_11_DO" 
New "Load.BT_994777_M1" bus1="1000994777.1.2.4" phases=1 conn=Delta model=2 kv=0.220000000 kw = 0.2695915 pf=0.92 status=variable vmaxpu=1.5 vminpu=0.92 daily="RES1_1_DO"  
New "Load.BT_994777_M2" bus1="1000994777.1.2.4" phases=1 conn=Delta model=3 kv=0.220000000 kw = 0.2695915 pf=0.92 status=variable vmaxpu=1.5 vminpu=0.92 daily="RES1_1_DO" 
New "Load.BT_6723455_1_M1" bus1="1006723455.1.2.4" phases=1 conn=Delta model=2 kv=0.220000000 kw = 0.515283 pf=0.92 status=variable vmaxpu=1.5 vminpu=0.92 daily="RES1_9_DO"  
New "Load.BT_6723455_1_M2" bus1="1006723455.1.2.4" phases=1 conn=Delta model=3 kv=0.220000000 kw = 0.515283 pf=0.92 status=variable vmaxpu=1.5 vminpu=0.92 daily="RES1_9_DO" 
New "Load.BT_1238356_M1" bus1="1001238356.1.2.3.4" phases=3 conn=Delta model=2 kv=0.220000000 kw = 0.073787 pf=0.92 status=variable vmaxpu=1.5 vminpu=0.92 daily="RES1_18_DO"  
New "Load.BT_1238356_M2" bus1="1001238356.1.2.3.4" phases=3 conn=Delta model=3 kv=0.220000000 kw = 0.073787 pf=0.92 status=variable vmaxpu=1.5 vminpu=0.92 daily="RES1_18_DO" 

New "Load.BT_1009939_M1" bus1="1001009939.1.4" phases=1 conn=Wye model=2 kv=0.220000000 kw = 0.0700295 pf=0.92 status=variable vmaxpu=1.5 vminpu=0.92 daily="RES1_1_DO"  
New "Load.BT_1009939_M2" bus1="1001009939.1.4" phases=1 conn=Wye model=3 kv=0.220000000 kw = 0.0700295 pf=0.92 status=variable vmaxpu=1.5 vminpu=0.92 daily="RES1_1_DO" 
New "Load.BT_10237022_2_M1" bus1="1010237022.1.2.3.4" phases=3 conn=Delta model=2 kv=0.220000000 kw = 0.440148 pf=0.92 status=variable vmaxpu=1.5 vminpu=0.92 daily="RES1_16_DO"  
New "Load.BT_10237022_2_M2" bus1="1010237022.1.2.3.4" phases=3 conn=Delta model=3 kv=0.220000000 kw = 0.440148 pf=0.92 status=variable vmaxpu=1.5 vminpu=0.92 daily="RES1_16_DO" 
New "Load.BT_6571282_M1" bus1="1006571282.2.4" phases=1 conn=Wye model=2 kv=0.220000000 kw = 0.3315705 pf=0.92 status=variable vmaxpu=1.5 vminpu=0.92 daily="RES1_2_DO"  
New "Load.BT_6571282_M2" bus1="1006571282.2.4" phases=1 conn=Wye model=3 kv=0.220000000 kw = 0.3315705 pf=0.92 status=variable vmaxpu=1.5 vminpu=0.92 daily="RES1_2_DO" 
New "Load.BT_1020733_2_M1" bus1="1001020733.1.2.3.4" phases=3 conn=Delta model=2 kv=0.220000000 kw = 0.132059 pf=0.92 status=variable vmaxpu=1.5 vminpu=0.92 daily="RES1_11_DO"  
New "Load.BT_1020733_2_M2" bus1="1001020733.1.2.3.4" phases=3 conn=Delta model=3 kv=0.220000000 kw = 0.132059 pf=0.92 status=variable vmaxpu=1.5 vminpu=0.92 daily="RES1_11_DO" 
New "Load.BT_1053255_1_M1" bus1="1001053255.1.2.3.4" phases=3 conn=Delta model=2 kv=0.220000000 kw = 0.077006 pf=0.92 status=variable vmaxpu=1.5 vminpu=0.92 daily="RES1_2_DO"  
New "Load.BT_1053255_1_M2" bus1="1001053255.1.2.3.4" phases=3 conn=Delta model=3 kv=0.220000000 kw = 0.077006 pf=0.92 status=variable vmaxpu=1.5 vminpu=0.92 daily="RES1_2_DO" 


New "Load.BT_1016645_1_M1" bus1="1001016645.1.2.4" phases=1 conn=Delta model=2 kv=0.220000000 kw = 0.0145945 pf=0.92 status=variable vmaxpu=1.5 vminpu=0.92 daily="COM1_17_DO"  
New "Load.BT_1016645_1_M2" bus1="1001016645.1.2.4" phases=1 conn=Delta model=3 kv=0.220000000 kw = 0.0145945 pf=0.92 status=variable vmaxpu=1.5 vminpu=0.92 daily="COM1_17_DO" 
New "Load.BT_1007874_M1" bus1="1001007874.3.4" phases=1 conn=Wye model=2 kv=0.220000000 kw = 0.074068 pf=0.92 status=variable vmaxpu=1.5 vminpu=0.92 daily="RES1_11_DO"  
New "Load.BT_1007874_M2" bus1="1001007874.3.4" phases=1 conn=Wye model=3 kv=0.220000000 kw = 0.074068 pf=0.92 status=variable vmaxpu=1.5 vminpu=0.92 daily="RES1_11_DO" 
New "Load.BT_4892538_M1" bus1="1004892538.1.2.4" phases=1 conn=Delta model=2 kv=0.220000000 kw = 0.3911775 pf=0.92 status=variable vmaxpu=1.5 vminpu=0.92 daily="RES1_2_DO"  
New "Load.BT_4892538_M2" bus1="1004892538.1.2.4" phases=1 conn=Delta model=3 kv=0.220000000 kw = 0.3911775 pf=0.92 status=variable vmaxpu=1.5 vminpu=0.92 daily="RES1_2_DO" 
New "Load.BT_992614_M1" bus1="1000992614.3.4" phases=1 conn=Wye model=2 kv=0.220000000 kw = 0.399385 pf=0.92 status=variable vmaxpu=1.5 vminpu=0.92 daily="RES1_1_DO"  
New "Load.BT_992614_M2" bus1="1000992614.3.4" phases=1 conn=Wye model=3 kv=0.220000000 kw = 0.399385 pf=0.92 status=variable vmaxpu=1.5 vminpu=0.92 daily="RES1_1_DO" 
New "Load.BT_1036770_M1" bus1="1001036770.1.2.3.4" phases=3 conn=Delta model=2 kv=0.220000000 kw = 0.0003165 pf=0.92 status=variable vmaxpu=1.5 vminpu=0.92 daily="RES1_19_DO"  
New "Load.BT_1036770_M2" bus1="1001036770.1.2.3.4" phases=3 conn=Delta model=3 kv=0.220000000 kw = 0.0003165 pf=0.92 status=variable vmaxpu=1.5 vminpu=0.92 daily="RES1_19_DO" 
New "Load.BT_1041894_1_M1" bus1="1001041894.1.2.3.4" phases=3 conn=Delta model=2 kv=0.220000000 kw = 0.4207545 pf=0.92 status=variable vmaxpu=1.5 vminpu=0.92 daily="RES1_11_DO"  
New "Load.BT_1041894_1_M2" bus1="1001041894.1.2.3.4" phases=3 conn=Delta model=3 kv=0.220000000 kw = 0.4207545 pf=0.92 status=variable vmaxpu=1.5 vminpu=0.92 daily="RES1_11_DO" 
New "Load.BT_1031338_M1" bus1="1001031338.1.2.3.4" phases=3 conn=Delta model=2 kv=0.220000000 kw = 0.9872665 pf=0.92 status=variable vmaxpu=1.5 vminpu=0.92 daily="RES1_13_DO"  
New "Load.BT_1031338_M2" bus1="1001031338.1.2.3.4" phases=3 conn=Delta model=3 kv=0.220000000 kw = 0.9872665 pf=0.92 status=variable vmaxpu=1.5 vminpu=0.92 daily="RES1_13_DO" 
New "Load.BT_1013796_3_M1" bus1="1001013796.1.2.3.4" phases=3 conn=Delta model=2 kv=0.220000000 kw = 0.186318 pf=0.92 status=variable vmaxpu=1.5 vminpu=0.92 daily="RES1_2_DO"  
New "Load.BT_1013796_3_M2" bus1="1001013796.1.2.3.4" phases=3 conn=Delta model=3 kv=0.220000000 kw = 0.186318 pf=0.92 status=variable vmaxpu=1.5 vminpu=0.92 daily="RES1_2_DO" 
New "Load.BT_1020516_1_M1" bus1="1001020516.1.2.3.4" phases=3 conn=Delta model=2 kv=0.220000000 kw = 0.9499865 pf=0.92 status=variable vmaxpu=1.5 vminpu=0.92 daily="RES1_1_DO"  
New "Load.BT_1020516_1_M2" bus1="1001020516.1.2.3.4" phases=3 conn=Delta model=3 kv=0.220000000 kw = 0.9499865 pf=0.92 status=variable vmaxpu=1.5 vminpu=0.92 daily="RES1_1_DO" 
New "Load.BT_10406746_M1" bus1="1010406746.1.2.4" phases=1 conn=Delta model=2 kv=0.220000000 kw = 0.2720555 pf=0.92 status=variable vmaxpu=1.5 vminpu=0.92 daily="RES1_6_DO"  
New "Load.BT_10406746_M2" bus1="1010406746.1.2.4" phases=1 conn=Delta model=3 kv=0.220000000 kw = 0.2720555 pf=0.92 status=variable vmaxpu=1.5 vminpu=0.92 daily="RES1_6_DO" 
New "Load.BT_1015350_1_M1" bus1="1001015350.3.4" phases=1 conn=Wye model=2 kv=0.220000000 kw = 0.181407 pf=0.92 status=variable vmaxpu=1.5 vminpu=0.92 daily="RES1_26_DO"  
New "Load.BT_1015350_1_M2" bus1="1001015350.3.4" phases=1 conn=Wye model=3 kv=0.220000000 kw = 0.181407 pf=0.92 status=variable vmaxpu=1.5 vminpu=0.92 daily="RES1_26_DO" 
New "Load.BT_1013796_4_M1" bus1="1001013796.1.2.3.4" phases=3 conn=Delta model=2 kv=0.220000000 kw = 0.0729945 pf=0.92 status=variable vmaxpu=1.5 vminpu=0.92 daily="RES1_2_DO"  
New "Load.BT_1013796_4_M2" bus1="1001013796.1.2.3.4" phases=3 conn=Delta model=3 kv=0.220000000 kw = 0.0729945 pf=0.92 status=variable vmaxpu=1.5 vminpu=0.92 daily="RES1_2_DO" 
New "Load.BT_1024660_1_M1" bus1="1001024660.1.2.3.4" phases=3 conn=Delta model=2 kv=0.220000000 kw = 0.013598 pf=0.92 status=variable vmaxpu=1.5 vminpu=0.92 daily="RES1_2_DO"  
New "Load.BT_1024660_1_M2" bus1="1001024660.1.2.3.4" phases=3 conn=Delta model=3 kv=0.220000000 kw = 0.013598 pf=0.92 status=variable vmaxpu=1.5 vminpu=0.92 daily="RES1_2_DO" 
New "Load.BT_1204112_1_M1" bus1="1001204112.1.2.3.4" phases=3 conn=Delta model=2 kv=0.220000000 kw = 0.700613 pf=0.92 status=variable vmaxpu=1.5 vminpu=0.92 daily="RES1_1_DO"  
New "Load.BT_1204112_1_M2" bus1="1001204112.1.2.3.4" phases=3 conn=Delta model=3 kv=0.220000000 kw = 0.700613 pf=0.92 status=variable vmaxpu=1.5 vminpu=0.92 daily="RES1_1_DO" 
New "Load.BT_1034684_M1" bus1="1001034684.1.2.3.4" phases=3 conn=Delta model=2 kv=0.220000000 kw = 0.483166 pf=0.92 status=variable vmaxpu=1.5 vminpu=0.92 daily="RES1_19_DO"  
New "Load.BT_1034684_M2" bus1="1001034684.1.2.3.4" phases=3 conn=Delta model=3 kv=0.220000000 kw = 0.483166 pf=0.92 status=variable vmaxpu=1.5 vminpu=0.92 daily="RES1_19_DO" 
New "Load.BT_4928714_1_M1" bus1="1004928714.1.2.3.4" phases=3 conn=Delta model=2 kv=0.220000000 kw = 0.1726485 pf=0.92 status=variable vmaxpu=1.5 vminpu=0.92 daily="COM1_21_DO"  
New "Load.BT_4928714_1_M2" bus1="1004928714.1.2.3.4" phases=3 conn=Delta model=3 kv=0.220000000 kw = 0.1726485 pf=0.92 status=variable vmaxpu=1.5 vminpu=0.92 daily="COM1_21_DO" 
New "Load.BT_1033844_M1" bus1="1001033844.1.2.3.4" phases=3 conn=Delta model=2 kv=0.220000000 kw = 1.37947 pf=0.92 status=variable vmaxpu=1.5 vminpu=0.92 daily="COM1_21_DO"  
New "Load.BT_1033844_M2" bus1="1001033844.1.2.3.4" phases=3 conn=Delta model=3 kv=0.220000000 kw = 1.37947 pf=0.92 status=variable vmaxpu=1.5 vminpu=0.92 daily="COM1_21_DO" 
New "Load.BT_990913_M1" bus1="1000990913.3.4" phases=1 conn=Wye model=2 kv=0.220000000 kw = 0.1328315 pf=0.92 status=variable vmaxpu=1.5 vminpu=0.92 daily="RES1_1_DO"  
New "Load.BT_990913_M2" bus1="1000990913.3.4" phases=1 conn=Wye model=3 kv=0.220000000 kw = 0.1328315 pf=0.92 status=variable vmaxpu=1.5 vminpu=0.92 daily="RES1_1_DO" 
New "Load.BT_1025017_2_M1" bus1="1001025017.1.2.3.4" phases=3 conn=Delta model=2 kv=0.220000000 kw = 0.2107345 pf=0.92 status=variable vmaxpu=1.5 vminpu=0.92 daily="RES1_2_DO"  
New "Load.BT_1025017_2_M2" bus1="1001025017.1.2.3.4" phases=3 conn=Delta model=3 kv=0.220000000 kw = 0.2107345 pf=0.92 status=variable vmaxpu=1.5 vminpu=0.92 daily="RES1_2_DO" 
New "Load.BT_1016722_1_M1" bus1="1001016722.1.2.3.4" phases=3 conn=Delta model=2 kv=0.220000000 kw = 0.086014 pf=0.92 status=variable vmaxpu=1.5 vminpu=0.92 daily="RES1_12_DO"  
New "Load.BT_1016722_1_M2" bus1="1001016722.1.2.3.4" phases=3 conn=Delta model=3 kv=0.220000000 kw = 0.086014 pf=0.92 status=variable vmaxpu=1.5 vminpu=0.92 daily="RES1_12_DO" 
New "Load.BT_4555663_M1" bus1="1004555663.1.2.3.4" phases=3 conn=Delta model=2 kv=0.220000000 kw = 0.3893975 pf=0.92 status=variable vmaxpu=1.5 vminpu=0.92 daily="RES1_6_DO"  
New "Load.BT_4555663_M2" bus1="1004555663.1.2.3.4" phases=3 conn=Delta model=3 kv=0.220000000 kw = 0.3893975 pf=0.92 status=variable vmaxpu=1.5 vminpu=0.92 daily="RES1_6_DO" 

New "Load.BT_1024940_2_M1" bus1="1001024940.1.2.3.4" phases=3 conn=Delta model=2 kv=0.220000000 kw = 0.004838 pf=0.92 status=variable vmaxpu=1.5 vminpu=0.92 daily="RES1_2_DO"  
New "Load.BT_1024940_2_M2" bus1="1001024940.1.2.3.4" phases=3 conn=Delta model=3 kv=0.220000000 kw = 0.004838 pf=0.92 status=variable vmaxpu=1.5 vminpu=0.92 daily="RES1_2_DO" 
New "Load.BT_3956057_1_M1" bus1="1003956057.1.2.4" phases=1 conn=Delta model=2 kv=0.220000000 kw = 0.069313 pf=0.92 status=variable vmaxpu=1.5 vminpu=0.92 daily="RES1_2_DO"  
New "Load.BT_3956057_1_M2" bus1="1003956057.1.2.4" phases=1 conn=Delta model=3 kv=0.220000000 kw = 0.069313 pf=0.92 status=variable vmaxpu=1.5 vminpu=0.92 daily="RES1_2_DO" 
New "Load.BT_1022945_1_M1" bus1="1001022945.1.2.3.4" phases=3 conn=Delta model=2 kv=0.220000000 kw = 0.248069 pf=0.92 status=variable vmaxpu=1.5 vminpu=0.92 daily="RES1_16_DO"  
New "Load.BT_1022945_1_M2" bus1="1001022945.1.2.3.4" phases=3 conn=Delta model=3 kv=0.220000000 kw = 0.248069 pf=0.92 status=variable vmaxpu=1.5 vminpu=0.92 daily="RES1_16_DO" 
New "Load.BT_994385_M1" bus1="1000994385.1.4" phases=1 conn=Wye model=2 kv=0.220000000 kw = 0.2624155 pf=0.92 status=variable vmaxpu=1.5 vminpu=0.92 daily="RES1_1_DO"  
New "Load.BT_994385_M2" bus1="1000994385.1.4" phases=1 conn=Wye model=3 kv=0.220000000 kw = 0.2624155 pf=0.92 status=variable vmaxpu=1.5 vminpu=0.92 daily="RES1_1_DO" 
New "Load.BT_1012522_1_M1" bus1="1001012522.1.2.3.4" phases=3 conn=Delta model=2 kv=0.220000000 kw = 0.114257 pf=0.92 status=variable vmaxpu=1.5 vminpu=0.92 daily="RES1_11_DO"  
New "Load.BT_1012522_1_M2" bus1="1001012522.1.2.3.4" phases=3 conn=Delta model=3 kv=0.220000000 kw = 0.114257 pf=0.92 status=variable vmaxpu=1.5 vminpu=0.92 daily="RES1_11_DO" 
New "Load.BT_1014937_M1" bus1="1001014937.2.4" phases=1 conn=Wye model=2 kv=0.220000000 kw = 0.2389675 pf=0.92 status=variable vmaxpu=1.5 vminpu=0.92 daily="RES1_3_DO"  
New "Load.BT_1014937_M2" bus1="1001014937.2.4" phases=1 conn=Wye model=3 kv=0.220000000 kw = 0.2389675 pf=0.92 status=variable vmaxpu=1.5 vminpu=0.92 daily="RES1_3_DO" 
New "Load.BT_4915512_M1" bus1="1004915512.1.2.4" phases=1 conn=Delta model=2 kv=0.220000000 kw = 0.1624225 pf=0.92 status=variable vmaxpu=1.5 vminpu=0.92 daily="RES1_7_DO"  
New "Load.BT_4915512_M2" bus1="1004915512.1.2.4" phases=1 conn=Delta model=3 kv=0.220000000 kw = 0.1624225 pf=0.92 status=variable vmaxpu=1.5 vminpu=0.92 daily="RES1_7_DO" 
New "Load.BT_992740_1_M1" bus1="1000992740.3.1.4" phases=1 conn=Delta model=2 kv=0.220000000 kw = 0.1237175 pf=0.92 status=variable vmaxpu=1.5 vminpu=0.92 daily="RES1_1_DO"  
New "Load.BT_992740_1_M2" bus1="1000992740.3.1.4" phases=1 conn=Delta model=3 kv=0.220000000 kw = 0.1237175 pf=0.92 status=variable vmaxpu=1.5 vminpu=0.92 daily="RES1_1_DO" 
New "Load.BT_3729285_1_M1" bus1="1003729285.3.4" phases=1 conn=Wye model=2 kv=0.220000000 kw = 0.1445815 pf=0.92 status=variable vmaxpu=1.5 vminpu=0.92 daily="RES1_1_DO"  
New "Load.BT_3729285_1_M2" bus1="1003729285.3.4" phases=1 conn=Wye model=3 kv=0.220000000 kw = 0.1445815 pf=0.92 status=variable vmaxpu=1.5 vminpu=0.92 daily="RES1_1_DO" 
New "Load.BT_1011528_M1" bus1="1001011528.2.4" phases=1 conn=Wye model=2 kv=0.220000000 kw = 0.5015115 pf=0.92 status=variable vmaxpu=1.5 vminpu=0.92 daily="RES1_26_DO"  
New "Load.BT_1011528_M2" bus1="1001011528.2.4" phases=1 conn=Wye model=3 kv=0.220000000 kw = 0.5015115 pf=0.92 status=variable vmaxpu=1.5 vminpu=0.92 daily="RES1_26_DO" 
New "Load.BT_1033809_2_M1" bus1="1001033809.1.2.3.4" phases=3 conn=Delta model=2 kv=0.220000000 kw = 0.2680425 pf=0.92 status=variable vmaxpu=1.5 vminpu=0.92 daily="RES1_2_DO"  
New "Load.BT_1033809_2_M2" bus1="1001033809.1.2.3.4" phases=3 conn=Delta model=3 kv=0.220000000 kw = 0.2680425 pf=0.92 status=variable vmaxpu=1.5 vminpu=0.92 daily="RES1_2_DO" 
New "Load.BT_5093725_M1" bus1="1005093725.2.3.4" phases=1 conn=Delta model=2 kv=0.220000000 kw = 0.437922 pf=0.92 status=variable vmaxpu=1.5 vminpu=0.92 daily="RES1_2_DO"  
New "Load.BT_5093725_M2" bus1="1005093725.2.3.4" phases=1 conn=Delta model=3 kv=0.220000000 kw = 0.437922 pf=0.92 status=variable vmaxpu=1.5 vminpu=0.92 daily="RES1_2_DO" 
New "Load.BT_10215124_1_M1" bus1="1010215124.1.2.3.4" phases=3 conn=Delta model=2 kv=0.220000000 kw = 0.0 pf=0.92 status=variable vmaxpu=1.5 vminpu=0.92 daily="RES1_17_DO"  
New "Load.BT_10215124_1_M2" bus1="1010215124.1.2.3.4" phases=3 conn=Delta model=3 kv=0.220000000 kw = 0.0 pf=0.92 status=variable vmaxpu=1.5 vminpu=0.92 daily="RES1_17_DO" 
New "Load.BT_1219386_M1" bus1="1001219386.3.1.4" phases=1 conn=Delta model=2 kv=0.220000000 kw = 0.2853985 pf=0.92 status=variable vmaxpu=1.5 vminpu=0.92 daily="RES1_7_DO"  
New "Load.BT_1219386_M2" bus1="1001219386.3.1.4" phases=1 conn=Delta model=3 kv=0.220000000 kw = 0.2853985 pf=0.92 status=variable vmaxpu=1.5 vminpu=0.92 daily="RES1_7_DO" 
New "Load.BT_1053255_2_M1" bus1="1001053255.1.2.3.4" phases=3 conn=Delta model=2 kv=0.220000000 kw = 0.076796 pf=0.92 status=variable vmaxpu=1.5 vminpu=0.92 daily="RES1_2_DO"  
New "Load.BT_1053255_2_M2" bus1="1001053255.1.2.3.4" phases=3 conn=Delta model=3 kv=0.220000000 kw = 0.076796 pf=0.92 status=variable vmaxpu=1.5 vminpu=0.92 daily="RES1_2_DO" 
New "Load.BT_4593631_1_M1" bus1="1004593631.1.2.4" phases=1 conn=Delta model=2 kv=0.220000000 kw = 0.252989 pf=0.92 status=variable vmaxpu=1.5 vminpu=0.92 daily="RES1_16_DO"  
New "Load.BT_4593631_1_M2" bus1="1004593631.1.2.4" phases=1 conn=Delta model=3 kv=0.220000000 kw = 0.252989 pf=0.92 status=variable vmaxpu=1.5 vminpu=0.92 daily="RES1_16_DO" 
New "Load.BT_1013796_5_M1" bus1="1001013796.1.2.3.4" phases=3 conn=Delta model=2 kv=0.220000000 kw = 0.3032775 pf=0.92 status=variable vmaxpu=1.5 vminpu=0.92 daily="RES1_2_DO"  
New "Load.BT_1013796_5_M2" bus1="1001013796.1.2.3.4" phases=3 conn=Delta model=3 kv=0.220000000 kw = 0.3032775 pf=0.92 status=variable vmaxpu=1.5 vminpu=0.92 daily="RES1_2_DO" 
New "Load.BT_994301_1_M1" bus1="1000994301.1.2.4" phases=1 conn=Delta model=2 kv=0.220000000 kw = 0.1962345 pf=0.92 status=variable vmaxpu=1.5 vminpu=0.92 daily="RES1_2_DO"  
New "Load.BT_994301_1_M2" bus1="1000994301.1.2.4" phases=1 conn=Delta model=3 kv=0.220000000 kw = 0.1962345 pf=0.92 status=variable vmaxpu=1.5 vminpu=0.92 daily="RES1_2_DO" 
New "Load.BT_1042216_2_M1" bus1="1001042216.1.2.3.4" phases=3 conn=Delta model=2 kv=0.220000000 kw = 0.240496 pf=0.92 status=variable vmaxpu=1.5 vminpu=0.92 daily="RES1_19_DO"  
New "Load.BT_1042216_2_M2" bus1="1001042216.1.2.3.4" phases=3 conn=Delta model=3 kv=0.220000000 kw = 0.240496 pf=0.92 status=variable vmaxpu=1.5 vminpu=0.92 daily="RES1_19_DO" 

New "Load.BT_6474843_2_M1" bus1="1006474843.1.2.3.4" phases=3 conn=Delta model=2 kv=0.220000000 kw = 0.179902 pf=0.92 status=variable vmaxpu=1.5 vminpu=0.92 daily="RES1_1_DO"  
New "Load.BT_6474843_2_M2" bus1="1006474843.1.2.3.4" phases=3 conn=Delta model=3 kv=0.220000000 kw = 0.179902 pf=0.92 status=variable vmaxpu=1.5 vminpu=0.92 daily="RES1_1_DO" 
New "Load.BT_1036616_1_M1" bus1="1001036616.1.2.3.4" phases=3 conn=Delta model=2 kv=0.220000000 kw = 0.166476 pf=0.92 status=variable vmaxpu=1.5 vminpu=0.92 daily="RES1_19_DO"  
New "Load.BT_1036616_1_M2" bus1="1001036616.1.2.3.4" phases=3 conn=Delta model=3 kv=0.220000000 kw = 0.166476 pf=0.92 status=variable vmaxpu=1.5 vminpu=0.92 daily="RES1_19_DO" 

New "Load.BT_1008028_1_M1" bus1="1001008028.3.4" phases=1 conn=Wye model=2 kv=0.220000000 kw = 0.15069 pf=0.92 status=variable vmaxpu=1.5 vminpu=0.92 daily="RES1_11_DO"  
New "Load.BT_1008028_1_M2" bus1="1001008028.3.4" phases=1 conn=Wye model=3 kv=0.220000000 kw = 0.15069 pf=0.92 status=variable vmaxpu=1.5 vminpu=0.92 daily="RES1_11_DO" 
New "Load.BT_3796058_M1" bus1="1003796058.1.2.3.4" phases=3 conn=Delta model=2 kv=0.220000000 kw = 0.004473 pf=0.92 status=variable vmaxpu=1.5 vminpu=0.92 daily="RES1_7_DO"  
New "Load.BT_3796058_M2" bus1="1003796058.1.2.3.4" phases=3 conn=Delta model=3 kv=0.220000000 kw = 0.004473 pf=0.92 status=variable vmaxpu=1.5 vminpu=0.92 daily="RES1_7_DO" 
New "Load.BT_1007916_M1" bus1="1001007916.1.2.4" phases=1 conn=Delta model=2 kv=0.220000000 kw = 0.123195 pf=0.92 status=variable vmaxpu=1.5 vminpu=0.92 daily="RES1_11_DO"  
New "Load.BT_1007916_M2" bus1="1001007916.1.2.4" phases=1 conn=Delta model=3 kv=0.220000000 kw = 0.123195 pf=0.92 status=variable vmaxpu=1.5 vminpu=0.92 daily="RES1_11_DO" 
New "Load.BT_1023988_1_M1" bus1="1001023988.1.2.3.4" phases=3 conn=Delta model=2 kv=0.220000000 kw = 0.3340415 pf=0.92 status=variable vmaxpu=1.5 vminpu=0.92 daily="RES1_24_DO"  
New "Load.BT_1023988_1_M2" bus1="1001023988.1.2.3.4" phases=3 conn=Delta model=3 kv=0.220000000 kw = 0.3340415 pf=0.92 status=variable vmaxpu=1.5 vminpu=0.92 daily="RES1_24_DO" 
New "Load.BT_992607_M1" bus1="1000992607.1.2.4" phases=1 conn=Delta model=2 kv=0.220000000 kw = 0.2057945 pf=0.92 status=variable vmaxpu=1.5 vminpu=0.92 daily="RES1_1_DO"  
New "Load.BT_992607_M2" bus1="1000992607.1.2.4" phases=1 conn=Delta model=3 kv=0.220000000 kw = 0.2057945 pf=0.92 status=variable vmaxpu=1.5 vminpu=0.92 daily="RES1_1_DO" 
New "Load.BT_1018367_M1" bus1="1001018367.2.3.4" phases=1 conn=Delta model=2 kv=0.220000000 kw = 0.4280115 pf=0.92 status=variable vmaxpu=1.5 vminpu=0.92 daily="RES1_4_DO"  
New "Load.BT_1018367_M2" bus1="1001018367.2.3.4" phases=1 conn=Delta model=3 kv=0.220000000 kw = 0.4280115 pf=0.92 status=variable vmaxpu=1.5 vminpu=0.92 daily="RES1_4_DO" 
New "Load.BT_998417_M1" bus1="1000998417.2.4" phases=1 conn=Wye model=2 kv=0.120000000 kw = 0.064776 pf=0.92 status=variable vmaxpu=1.5 vminpu=0.92 daily="RES1_10_DO"  
New "Load.BT_998417_M2" bus1="1000998417.2.4" phases=1 conn=Wye model=3 kv=0.120000000 kw = 0.064776 pf=0.92 status=variable vmaxpu=1.5 vminpu=0.92 daily="RES1_10_DO" 
New "Load.BT_1020502_M1" bus1="1001020502.2.4" phases=1 conn=Wye model=2 kv=0.220000000 kw = 0.0458135 pf=0.92 status=variable vmaxpu=1.5 vminpu=0.92 daily="RES1_7_DO"  
New "Load.BT_1020502_M2" bus1="1001020502.2.4" phases=1 conn=Wye model=3 kv=0.220000000 kw = 0.0458135 pf=0.92 status=variable vmaxpu=1.5 vminpu=0.92 daily="RES1_7_DO" 

New "Load.BT_1033809_3_M1" bus1="1001033809.1.2.3.4" phases=3 conn=Delta model=2 kv=0.220000000 kw = 0.298845 pf=0.92 status=variable vmaxpu=1.5 vminpu=0.92 daily="RES1_2_DO"  
New "Load.BT_1033809_3_M2" bus1="1001033809.1.2.3.4" phases=3 conn=Delta model=3 kv=0.220000000 kw = 0.298845 pf=0.92 status=variable vmaxpu=1.5 vminpu=0.92 daily="RES1_2_DO" 
New "Load.BT_1017506_M1" bus1="1001017506.1.2.3.4" phases=3 conn=Delta model=2 kv=0.220000000 kw = 0.10191 pf=0.92 status=variable vmaxpu=1.5 vminpu=0.92 daily="COM1_11_DO"  
New "Load.BT_1017506_M2" bus1="1001017506.1.2.3.4" phases=3 conn=Delta model=3 kv=0.220000000 kw = 0.10191 pf=0.92 status=variable vmaxpu=1.5 vminpu=0.92 daily="COM1_11_DO" 
New "Load.BT_6474843_3_M1" bus1="1006474843.1.2.3.4" phases=3 conn=Delta model=2 kv=0.220000000 kw = 0.2203205 pf=0.92 status=variable vmaxpu=1.5 vminpu=0.92 daily="RES1_1_DO"  
New "Load.BT_6474843_3_M2" bus1="1006474843.1.2.3.4" phases=3 conn=Delta model=3 kv=0.220000000 kw = 0.2203205 pf=0.92 status=variable vmaxpu=1.5 vminpu=0.92 daily="RES1_1_DO" 
New "Load.BT_1021748_M1" bus1="1001021748.2.4" phases=1 conn=Wye model=2 kv=0.220000000 kw = 0.212295 pf=0.92 status=variable vmaxpu=1.5 vminpu=0.92 daily="RES1_7_DO"  
New "Load.BT_1021748_M2" bus1="1001021748.2.4" phases=1 conn=Wye model=3 kv=0.220000000 kw = 0.212295 pf=0.92 status=variable vmaxpu=1.5 vminpu=0.92 daily="RES1_7_DO" 
New "Load.BT_4138897_M1" bus1="1004138897.1.2.4" phases=1 conn=Delta model=2 kv=0.220000000 kw = 0.850309 pf=0.92 status=variable vmaxpu=1.5 vminpu=0.92 daily="RES1_3_DO"  
New "Load.BT_4138897_M2" bus1="1004138897.1.2.4" phases=1 conn=Delta model=3 kv=0.220000000 kw = 0.850309 pf=0.92 status=variable vmaxpu=1.5 vminpu=0.92 daily="RES1_3_DO" 
New "Load.BT_10215124_2_M1" bus1="1010215124.1.2.3.4" phases=3 conn=Delta model=2 kv=0.220000000 kw = 0.046309 pf=0.92 status=variable vmaxpu=1.5 vminpu=0.92 daily="RES1_17_DO"  
New "Load.BT_10215124_2_M2" bus1="1010215124.1.2.3.4" phases=3 conn=Delta model=3 kv=0.220000000 kw = 0.046309 pf=0.92 status=variable vmaxpu=1.5 vminpu=0.92 daily="RES1_17_DO" 
New "Load.BT_1018962_1_M1" bus1="1001018962.3.4" phases=1 conn=Wye model=2 kv=0.220000000 kw = 0.102237 pf=0.92 status=variable vmaxpu=1.5 vminpu=0.92 daily="RES1_4_DO"  
New "Load.BT_1018962_1_M2" bus1="1001018962.3.4" phases=1 conn=Wye model=3 kv=0.220000000 kw = 0.102237 pf=0.92 status=variable vmaxpu=1.5 vminpu=0.92 daily="RES1_4_DO" 
...